30_ders/system.glm
#set relax_naming_rules=1
#set profiler=0
#set double_format=%+.12lg
#set complex_format=%+.12lg%+.12lf%c
#set verbose=0

clock {
	timezone PST+8PDT;
	starttime '2001-08-01 12:00:00';
	stoptime '2001-08-01 12:32:00';
}

module tape;

module powerflow;

module generators;

module connection;

object helics_msg {
	name GLD1;
	configure gld_config.json;
}

object line_configuration {
	name line_config_1_2;
	z11 0.00010000000000000002+0.00010000000000000002j;
	z12 0;
	z13 0;
	z21 0;
	z22 0.00010000000000000002+0.00010000000000000002j;
	z23 0;
	z31 0;
	z32 0;
	z33 0.00010000000000000002+0.00010000000000000002j;
}

object line_configuration {
	name line_config_2_3;
	z11 0.0347+0.0817j;
	z12 0.0118+0.038j;
	z13 0.011599999999999997+0.029200000000000004j;
	z21 0.0118+0.038j;
	z22 0.0353+0.0794j;
	z23 0.012+0.0321j;
	z31 0.011599999999999997+0.029200000000000004j;
	z32 0.012+0.0321j;
	z33 0.035+0.0807j;
}

object line_configuration {
	name line_config_3_4;
	z11 0;
	z12 0;
	z13 0;
	z21 0;
	z22 0.0441+0.0447j;
	z23 0;
	z31 0;
	z32 0;
	z33 0;
}

object line_configuration {
	name line_config_3_5;
	z11 0;
	z12 0;
	z13 0;
	z21 0;
	z22 0;
	z23 0;
	z31 0;
	z32 0;
	z33 0.0629+0.0638j;
}

object line_configuration {
	name line_config_3_9;
	z11 0.026+0.0613j;
	z12 0.0089+0.0285j;
	z13 0.0087+0.0219j;
	z21 0.0089+0.0285j;
	z22 0.026499999999999996+0.05959999999999999j;
	z23 0.009+0.0241j;
	z31 0.0087+0.0219j;
	z32 0.009+0.0241j;
	z33 0.026199999999999998+0.06049999999999999j;
}

object line_configuration {
	name line_config_5_6;
	z11 0;
	z12 0;
	z13 0;
	z21 0;
	z22 0;
	z23 0;
	z31 0;
	z32 0;
	z33 0.0503+0.051j;
}

object line_configuration {
	name line_config_5_7;
	z11 0;
	z12 0;
	z13 0;
	z21 0;
	z22 0;
	z23 0;
	z31 0;
	z32 0;
	z33 0.0818+0.0829j;
}

object line_configuration {
	name line_config_7_8;
	z11 0;
	z12 0;
	z13 0;
	z21 0;
	z22 0;
	z23 0;
	z31 0;
	z32 0;
	z33 0.0629+0.0638j;
}

object line_configuration {
	name line_config_9_10;
	z11 0.0173+0.0408j;
	z12 0.0059+0.019j;
	z13 0.005799999999999999+0.014600000000000002j;
	z21 0.0059+0.019j;
	z22 0.0177+0.0397j;
	z23 0.006+0.016j;
	z31 0.005799999999999999+0.014600000000000002j;
	z32 0.006+0.016j;
	z33 0.0175+0.0403j;
}

object line_configuration {
	name line_config_10_14;
	z11 0;
	z12 0;
	z13 0;
	z21 0;
	z22 0.0566+0.0574j;
	z23 0;
	z31 0;
	z32 0;
	z33 0;
}

object line_configuration {
	name line_config_10_11;
	z11 0.0566+0.0574j;
	z12 0;
	z13 0;
	z21 0;
	z22 0;
	z23 0;
	z31 0;
	z32 0;
	z33 0;
}

object line_configuration {
	name line_config_10_15;
	z11 0.026+0.0613j;
	z12 0.0089+0.0285j;
	z13 0.0087+0.0219j;
	z21 0.0089+0.0285j;
	z22 0.026499999999999996+0.05959999999999999j;
	z23 0.009+0.0241j;
	z31 0.0087+0.0219j;
	z32 0.009+0.0241j;
	z33 0.026199999999999998+0.06049999999999999j;
}

object line_configuration {
	name line_config_11_16;
	z11 0.00010000000000000002+0.00010000000000000002j;
	z12 0;
	z13 0;
	z21 0;
	z22 0;
	z23 0;
	z31 0;
	z32 0;
	z33 0;
}

object line_configuration {
	name line_config_15_36;
	z11 0;
	z12 0;
	z13 0;
	z21 0;
	z22 0;
	z23 0;
	z31 0;
	z32 0;
	z33 0.0378+0.0383j;
}

object line_configuration {
	name line_config_15_20;
	z11 0.0729+0.1638j;
	z12 0.0247+0.0662j;
	z13 0.0244+0.0784j;
	z21 0.0247+0.0662j;
	z22 0.0721+0.1664j;
	z23 0.024+0.060099999999999994j;
	z31 0.0244+0.0784j;
	z32 0.024+0.060099999999999994j;
	z33 0.0715+0.1684j;
}

object line_configuration {
	name line_config_16_13;
	z11 0.0629+0.0638j;
	z12 0;
	z13 0;
	z21 0;
	z22 0;
	z23 0;
	z31 0;
	z32 0;
	z33 0;
}

object line_configuration {
	name line_config_16_12;
	z11 0.0629+0.0638j;
	z12 0;
	z13 0;
	z21 0;
	z22 0;
	z23 0;
	z31 0;
	z32 0;
	z33 0;
}

object line_configuration {
	name line_config_17_18;
	z11 0;
	z12 0;
	z13 0;
	z21 0;
	z22 0;
	z23 0;
	z31 0;
	z32 0;
	z33 0.0944+0.0957j;
}

object line_configuration {
	name line_config_17_19;
	z11 0;
	z12 0;
	z13 0;
	z21 0;
	z22 0;
	z23 0;
	z31 0;
	z32 0;
	z33 0.0881+0.0893j;
}

object line_configuration {
	name line_config_20_21;
	z11 0.0629+0.0638j;
	z12 0;
	z13 0;
	z21 0;
	z22 0;
	z23 0;
	z31 0;
	z32 0;
	z33 0;
}

object line_configuration {
	name line_config_20_23;
	z11 0.026499999999999996+0.05959999999999999j;
	z12 0.009+0.0241j;
	z13 0.0089+0.0285j;
	z21 0.009+0.0241j;
	z22 0.026199999999999998+0.06049999999999999j;
	z23 0.0087+0.0219j;
	z31 0.0089+0.0285j;
	z32 0.0087+0.0219j;
	z33 0.026+0.0613j;
}

object line_configuration {
	name line_config_21_22;
	z11 0.0818+0.0829j;
	z12 0;
	z13 0;
	z21 0;
	z22 0;
	z23 0;
	z31 0;
	z32 0;
	z33 0;
}

object line_configuration {
	name line_config_23_24;
	z11 0;
	z12 0;
	z13 0;
	z21 0;
	z22 0.1322+0.134j;
	z23 0;
	z31 0;
	z32 0;
	z33 0;
}

object line_configuration {
	name line_config_23_25;
	z11 0.0221+0.0496j;
	z12 0.007500000000000001+0.0201j;
	z13 0.0073999999999999995+0.0238j;
	z21 0.007500000000000001+0.0201j;
	z22 0.0219+0.0504j;
	z23 0.007300000000000001+0.0182j;
	z31 0.0073999999999999995+0.0238j;
	z32 0.007300000000000001+0.0182j;
	z33 0.0217+0.051j;
}

object line_configuration {
	name line_config_25_26;
	z11 0;
	z12 0;
	z13 0;
	z21 0;
	z22 0;
	z23 0;
	z31 0;
	z32 0;
	z33 0.1385+0.1404j;
}

object line_configuration {
	name line_config_25_27;
	z11 0.0243+0.0546j;
	z12 0.0082+0.0221j;
	z13 0.0081+0.026099999999999998j;
	z21 0.0082+0.0221j;
	z22 0.024+0.0555j;
	z23 0.008+0.02j;
	z31 0.0081+0.026099999999999998j;
	z32 0.008+0.02j;
	z33 0.0238+0.0561j;
}

object line_configuration {
	name line_config_27_28;
	z11 0.00010000000000000002+0.00010000000000000002j;
	z12 0;
	z13 0;
	z21 0;
	z22 0;
	z23 0;
	z31 0;
	z32 0;
	z33 0.00010000000000000002+0.00010000000000000002j;
}

object line_configuration {
	name line_config_27_30;
	z11 0.0177+0.0397j;
	z12 0.006+0.016j;
	z13 0.0059+0.019j;
	z21 0.006+0.016j;
	z22 0.0175+0.0403j;
	z23 0.005799999999999999+0.014600000000000002j;
	z31 0.0059+0.019j;
	z32 0.005799999999999999+0.014600000000000002j;
	z33 0.0173+0.0408j;
}

object line_configuration {
	name line_config_28_29;
	z11 0.0238+0.0561j;
	z12 0;
	z13 0;
	z21 0;
	z22 0;
	z23 0;
	z31 0;
	z32 0;
	z33 0;
}

object line_configuration {
	name line_config_28_33;
	z11 0;
	z12 0;
	z13 0;
	z21 0;
	z22 0;
	z23 0;
	z31 0;
	z32 0;
	z33 0.0566+0.0574j;
}

object line_configuration {
	name line_config_29_35;
	z11 0.1259+0.1276j;
	z12 0;
	z13 0;
	z21 0;
	z22 0;
	z23 0;
	z31 0;
	z32 0;
	z33 0;
}

object line_configuration {
	name line_config_30_31;
	z11 0.026499999999999996+0.05959999999999999j;
	z12 0.009+0.0241j;
	z13 0.0089+0.0285j;
	z21 0.009+0.0241j;
	z22 0.026199999999999998+0.06049999999999999j;
	z23 0.0087+0.0219j;
	z31 0.0089+0.0285j;
	z32 0.0087+0.0219j;
	z33 0.026+0.0613j;
}

object line_configuration {
	name line_config_31_32;
	z11 0.0309+0.0695j;
	z12 0.0105+0.0281j;
	z13 0.0103+0.0333j;
	z21 0.0105+0.0281j;
	z22 0.030599999999999995+0.0706j;
	z23 0.0102+0.0255j;
	z31 0.0103+0.0333j;
	z32 0.0102+0.0255j;
	z33 0.0303+0.0715j;
}

object line_configuration {
	name line_config_32_119;
	z11 0.0177+0.0397j;
	z12 0.006+0.016j;
	z13 0.0059+0.019j;
	z21 0.006+0.016j;
	z22 0.0175+0.0403j;
	z23 0.005799999999999999+0.014600000000000002j;
	z31 0.0059+0.019j;
	z32 0.005799999999999999+0.014600000000000002j;
	z33 0.0173+0.0408j;
}

object line_configuration {
	name line_config_33_34;
	z11 0;
	z12 0;
	z13 0;
	z21 0;
	z22 0;
	z23 0;
	z31 0;
	z32 0;
	z33 0.0755+0.0766j;
}

object line_configuration {
	name line_config_36_17;
	z11 0;
	z12 0;
	z13 0;
	z21 0;
	z22 0;
	z23 0;
	z31 0;
	z32 0;
	z33 0.0252+0.0255j;
}

object line_configuration {
	name line_config_37_38;
	z11 0.0563+0.1327j;
	z12 0.0189+0.0474j;
	z13 0;
	z21 0.0189+0.0474j;
	z22 0.0568+0.1311j;
	z23 0;
	z31 0;
	z32 0;
	z33 0;
}

object line_configuration {
	name line_config_37_42;
	z11 0.0217+0.051j;
	z12 0.0073999999999999995+0.0238j;
	z13 0.007300000000000001+0.0182j;
	z21 0.0073999999999999995+0.0238j;
	z22 0.0221+0.0496j;
	z23 0.007500000000000001+0.0201j;
	z31 0.007300000000000001+0.0182j;
	z32 0.007500000000000001+0.0201j;
	z33 0.0219+0.0504j;
}

object line_configuration {
	name line_config_38_39;
	z11 0.0755+0.0766j;
	z12 0;
	z13 0;
	z21 0;
	z22 0;
	z23 0;
	z31 0;
	z32 0;
	z33 0;
}

object line_configuration {
	name line_config_38_40;
	z11 0;
	z12 0;
	z13 0;
	z21 0;
	z22 0.0629+0.0638j;
	z23 0;
	z31 0;
	z32 0;
	z33 0;
}

object line_configuration {
	name line_config_40_41;
	z11 0;
	z12 0;
	z13 0;
	z21 0;
	z22 0.0818+0.0829j;
	z23 0;
	z31 0;
	z32 0;
	z33 0;
}

object line_configuration {
	name line_config_42_43;
	z11 0;
	z12 0;
	z13 0;
	z21 0;
	z22 0;
	z23 0;
	z31 0;
	z32 0;
	z33 0.0818+0.0829j;
}

object line_configuration {
	name line_config_42_44;
	z11 0.0217+0.051j;
	z12 0.0073999999999999995+0.0238j;
	z13 0.007300000000000001+0.0182j;
	z21 0.0073999999999999995+0.0238j;
	z22 0.0221+0.0496j;
	z23 0.007500000000000001+0.0201j;
	z31 0.007300000000000001+0.0182j;
	z32 0.007500000000000001+0.0201j;
	z33 0.0219+0.0504j;
}

object line_configuration {
	name line_config_44_45;
	z11 0;
	z12 0;
	z13 0;
	z21 0;
	z22 0.1259+0.1276j;
	z23 0;
	z31 0;
	z32 0;
	z33 0;
}

object line_configuration {
	name line_config_44_46;
	z11 0.0173+0.0408j;
	z12 0.0059+0.019j;
	z13 0.005799999999999999+0.014600000000000002j;
	z21 0.0059+0.019j;
	z22 0.0177+0.0397j;
	z23 0.006+0.016j;
	z31 0.005799999999999999+0.014600000000000002j;
	z32 0.006+0.016j;
	z33 0.0175+0.0403j;
}

object line_configuration {
	name line_config_46_47;
	z11 0.0503+0.051j;
	z12 0;
	z13 0;
	z21 0;
	z22 0;
	z23 0;
	z31 0;
	z32 0;
	z33 0;
}

object line_configuration {
	name line_config_46_49;
	z11 0.0217+0.051j;
	z12 0.0073999999999999995+0.0238j;
	z13 0.007300000000000001+0.0182j;
	z21 0.0073999999999999995+0.0238j;
	z22 0.0221+0.0496j;
	z23 0.007500000000000001+0.0201j;
	z31 0.007300000000000001+0.0182j;
	z32 0.007500000000000001+0.0201j;
	z33 0.0219+0.0504j;
}

object line_configuration {
	name line_config_47_48;
	z11 0.0755+0.0766j;
	z12 0;
	z13 0;
	z21 0;
	z22 0;
	z23 0;
	z31 0;
	z32 0;
	z33 0;
}

object line_configuration {
	name line_config_49_50;
	z11 0.013099999999999999+0.0303j;
	z12 0.0045+0.012j;
	z13 0.0044+0.0109j;
	z21 0.0045+0.012j;
	z22 0.013300000000000001+0.029799999999999997j;
	z23 0.0044+0.0143j;
	z31 0.0044+0.0109j;
	z32 0.0044+0.0143j;
	z33 0.013+0.030599999999999995j;
}

object line_configuration {
	name line_config_49_51;
	z11 0.0219+0.0504j;
	z12 0.007500000000000001+0.0201j;
	z13 0.007300000000000001+0.0182j;
	z21 0.007500000000000001+0.0201j;
	z22 0.0221+0.0496j;
	z23 0.0073999999999999995+0.0238j;
	z31 0.007300000000000001+0.0182j;
	z32 0.0073999999999999995+0.0238j;
	z33 0.0217+0.051j;
}

object line_configuration {
	name line_config_51_52;
	z11 0.0219+0.0504j;
	z12 0.007500000000000001+0.0201j;
	z13 0.007300000000000001+0.0182j;
	z21 0.007500000000000001+0.0201j;
	z22 0.0221+0.0496j;
	z23 0.0073999999999999995+0.0238j;
	z31 0.007300000000000001+0.0182j;
	z32 0.0073999999999999995+0.0238j;
	z33 0.0217+0.051j;
}

object line_configuration {
	name line_config_52_53;
	z11 0.0219+0.0504j;
	z12 0.007500000000000001+0.0201j;
	z13 0.007300000000000001+0.0182j;
	z21 0.007500000000000001+0.0201j;
	z22 0.0221+0.0496j;
	z23 0.0073999999999999995+0.0238j;
	z31 0.007300000000000001+0.0182j;
	z32 0.0073999999999999995+0.0238j;
	z33 0.0217+0.051j;
}

object line_configuration {
	name line_config_54_55;
	z11 0.0173+0.0408j;
	z12 0.0059+0.019j;
	z13 0.005799999999999999+0.014600000000000002j;
	z21 0.0059+0.019j;
	z22 0.0177+0.0397j;
	z23 0.006+0.016j;
	z31 0.005799999999999999+0.014600000000000002j;
	z32 0.006+0.016j;
	z33 0.0175+0.0403j;
}

object line_configuration {
	name line_config_55_56;
	z11 0.0108+0.0255j;
	z12 0.0036999999999999997+0.0119j;
	z13 0.0036+0.0091j;
	z21 0.0036999999999999997+0.0119j;
	z22 0.011+0.0248j;
	z23 0.0036999999999999997+0.01j;
	z31 0.0036+0.0091j;
	z32 0.0036999999999999997+0.01j;
	z33 0.0109+0.0252j;
}

object line_configuration {
	name line_config_56_57;
	z11 0.0238+0.0561j;
	z12 0.0081+0.026099999999999998j;
	z13 0.008+0.02j;
	z21 0.0081+0.026099999999999998j;
	z22 0.0243+0.0546j;
	z23 0.0082+0.0221j;
	z31 0.008+0.02j;
	z32 0.0082+0.0221j;
	z33 0.024+0.0555j;
}

object line_configuration {
	name line_config_56_59;
	z11 0.030599999999999995+0.0706j;
	z12 0.0102+0.0255j;
	z13 0.0105+0.0281j;
	z21 0.0102+0.0255j;
	z22 0.0303+0.0715j;
	z23 0.0103+0.0333j;
	z31 0.0105+0.0281j;
	z32 0.0103+0.0333j;
	z33 0.0309+0.0695j;
}

object line_configuration {
	name line_config_57_58;
	z11 0.0238+0.0561j;
	z12 0.0081+0.026099999999999998j;
	z13 0.008+0.02j;
	z21 0.0081+0.026099999999999998j;
	z22 0.0243+0.0546j;
	z23 0.0082+0.0221j;
	z31 0.008+0.02j;
	z32 0.0082+0.0221j;
	z33 0.024+0.0555j;
}

object line_configuration {
	name line_config_59_60;
	z11 0;
	z12 0;
	z13 0;
	z21 0;
	z22 0.0629+0.0638j;
	z23 0;
	z31 0;
	z32 0;
	z33 0;
}

object line_configuration {
	name line_config_59_62;
	z11 0.0656+0.1513j;
	z12 0.0218+0.0547j;
	z13 0.0224+0.060200000000000004j;
	z21 0.0218+0.0547j;
	z22 0.065+0.1531j;
	z23 0.0222+0.0713j;
	z31 0.0224+0.060200000000000004j;
	z32 0.0222+0.0713j;
	z33 0.0663+0.1489j;
}

object line_configuration {
	name line_config_60_61;
	z11 0;
	z12 0;
	z13 0;
	z21 0;
	z22 0.0629+0.0638j;
	z23 0;
	z31 0;
	z32 0;
	z33 0;
}

object line_configuration {
	name line_config_62_63;
	z11 0.0486+0.1092j;
	z12 0.0163+0.052300000000000006j;
	z13 0.0165+0.0441j;
	z21 0.0163+0.052300000000000006j;
	z22 0.0477+0.1123j;
	z23 0.016+0.0401j;
	z31 0.0165+0.0441j;
	z32 0.016+0.0401j;
	z33 0.0481+0.1109j;
}

object line_configuration {
	name line_config_62_64;
	z11 0.072+0.0356j;
	z12 0.0246+0.013099999999999999j;
	z13 0.0233+0.0102j;
	z21 0.0246+0.013099999999999999j;
	z22 0.0726+0.0339j;
	z23 0.0246+0.013099999999999999j;
	z31 0.0233+0.0102j;
	z32 0.0246+0.013099999999999999j;
	z33 0.072+0.0356j;
}

object line_configuration {
	name line_config_64_65;
	z11 0.0504+0.0249j;
	z12 0.0172+0.0092j;
	z13 0.0163+0.0071j;
	z21 0.0172+0.0092j;
	z22 0.0508+0.0237j;
	z23 0.0172+0.0092j;
	z31 0.0163+0.0071j;
	z32 0.0172+0.0092j;
	z33 0.0504+0.0249j;
}

object line_configuration {
	name line_config_65_66;
	z11 0.1008+0.0499j;
	z12 0.0345+0.0184j;
	z13 0.0326+0.0143j;
	z21 0.0345+0.0184j;
	z22 0.1016+0.0475j;
	z23 0.0345+0.0184j;
	z31 0.0326+0.0143j;
	z32 0.0345+0.0184j;
	z33 0.1008+0.0499j;
}

object line_configuration {
	name line_config_66_67;
	z11 0.12239999999999998+0.06049999999999999j;
	z12 0.0418+0.0223j;
	z13 0.0396+0.0174j;
	z21 0.0418+0.0223j;
	z22 0.1234+0.0576j;
	z23 0.0418+0.0223j;
	z31 0.0396+0.0174j;
	z32 0.0418+0.0223j;
	z33 0.12239999999999998+0.06049999999999999j;
}

object line_configuration {
	name line_config_67_68;
	z11 0.0936+0.0463j;
	z12 0.032+0.0171j;
	z13 0.0303+0.013300000000000001j;
	z21 0.032+0.0171j;
	z22 0.0944+0.0441j;
	z23 0.032+0.0171j;
	z31 0.0303+0.013300000000000001j;
	z32 0.032+0.0171j;
	z33 0.0936+0.0463j;
}

object line_configuration {
	name line_config_69_70;
	z11 0.0503+0.051j;
	z12 0;
	z13 0;
	z21 0;
	z22 0;
	z23 0;
	z31 0;
	z32 0;
	z33 0;
}

object line_configuration {
	name line_config_69_74;
	z11 0.024+0.0555j;
	z12 0.008+0.02j;
	z13 0.0082+0.0221j;
	z21 0.008+0.02j;
	z22 0.0238+0.0561j;
	z23 0.0081+0.026099999999999998j;
	z31 0.0082+0.0221j;
	z32 0.0081+0.026099999999999998j;
	z33 0.0243+0.0546j;
}

object line_configuration {
	name line_config_69_99;
	z11 0.0219+0.0504j;
	z12 0.007300000000000001+0.0182j;
	z13 0.007500000000000001+0.0201j;
	z21 0.007300000000000001+0.0182j;
	z22 0.0217+0.051j;
	z23 0.0073999999999999995+0.0238j;
	z31 0.007500000000000001+0.0201j;
	z32 0.0073999999999999995+0.0238j;
	z33 0.0221+0.0496j;
}

object line_configuration {
	name line_config_70_71;
	z11 0.0692+0.0702j;
	z12 0;
	z13 0;
	z21 0;
	z22 0;
	z23 0;
	z31 0;
	z32 0;
	z33 0;
}

object line_configuration {
	name line_config_71_72;
	z11 0.0818+0.0829j;
	z12 0;
	z13 0;
	z21 0;
	z22 0;
	z23 0;
	z31 0;
	z32 0;
	z33 0;
}

object line_configuration {
	name line_config_72_73;
	z11 0.0692+0.0702j;
	z12 0;
	z13 0;
	z21 0;
	z22 0;
	z23 0;
	z31 0;
	z32 0;
	z33 0;
}

object line_configuration {
	name line_config_74_75;
	z11 0;
	z12 0;
	z13 0;
	z21 0;
	z22 0;
	z23 0;
	z31 0;
	z32 0;
	z33 0.0692+0.0702j;
}

object line_configuration {
	name line_config_74_78;
	z11 0.0175+0.0403j;
	z12 0.005799999999999999+0.014600000000000002j;
	z13 0.006+0.016j;
	z21 0.005799999999999999+0.014600000000000002j;
	z22 0.0173+0.0408j;
	z23 0.0059+0.019j;
	z31 0.006+0.016j;
	z32 0.0059+0.019j;
	z33 0.0177+0.0397j;
}

object line_configuration {
	name line_config_75_76;
	z11 0;
	z12 0;
	z13 0;
	z21 0;
	z22 0;
	z23 0;
	z31 0;
	z32 0;
	z33 0.0881+0.0893j;
}

object line_configuration {
	name line_config_76_77;
	z11 0;
	z12 0;
	z13 0;
	z21 0;
	z22 0;
	z23 0;
	z31 0;
	z32 0;
	z33 0.1007+0.1021j;
}

object line_configuration {
	name line_config_78_79;
	z11 0.0347+0.0817j;
	z12 0.011599999999999997+0.029200000000000004j;
	z13 0.0118+0.038j;
	z21 0.011599999999999997+0.029200000000000004j;
	z22 0.035+0.0807j;
	z23 0.012+0.0321j;
	z31 0.0118+0.038j;
	z32 0.012+0.0321j;
	z33 0.0353+0.0794j;
}

object line_configuration {
	name line_config_78_88;
	z11 0.06119999999999999+0.1412j;
	z12 0.0204+0.051j;
	z13 0.0209+0.0562j;
	z21 0.0204+0.051j;
	z22 0.06069999999999999+0.1429j;
	z23 0.0207+0.0665j;
	z31 0.0209+0.0562j;
	z32 0.0207+0.0665j;
	z33 0.0619+0.139j;
}

object line_configuration {
	name line_config_79_80;
	z11 0.0087+0.0204j;
	z12 0.0028999999999999994+0.007300000000000001j;
	z13 0.003+0.0095j;
	z21 0.0028999999999999994+0.007300000000000001j;
	z22 0.0087+0.0202j;
	z23 0.003+0.008j;
	z31 0.003+0.0095j;
	z32 0.003+0.008j;
	z33 0.0088+0.0199j;
}

object line_configuration {
	name line_config_80_81;
	z11 0.0195+0.0459j;
	z12 0.0065+0.0164j;
	z13 0.006599999999999999+0.0214j;
	z21 0.0065+0.0164j;
	z22 0.0197+0.045399999999999996j;
	z23 0.0067+0.0181j;
	z31 0.006599999999999999+0.0214j;
	z32 0.0067+0.0181j;
	z33 0.0199+0.0447j;
}

object line_configuration {
	name line_config_80_82;
	z11 0.0412+0.097j;
	z12 0.0138+0.0346j;
	z13 0.014+0.045099999999999994j;
	z21 0.0138+0.0346j;
	z22 0.0415+0.0958j;
	z23 0.0142+0.0381j;
	z31 0.014+0.045099999999999994j;
	z32 0.0142+0.0381j;
	z33 0.042+0.09429999999999998j;
}

object line_configuration {
	name line_config_82_83;
	z11 0.0412+0.097j;
	z12 0.0138+0.0346j;
	z13 0.014+0.045099999999999994j;
	z21 0.0138+0.0346j;
	z22 0.0415+0.0958j;
	z23 0.0142+0.0381j;
	z31 0.014+0.045099999999999994j;
	z32 0.0142+0.0381j;
	z33 0.042+0.09429999999999998j;
}

object line_configuration {
	name line_config_83_84;
	z11 0.0217+0.051j;
	z12 0.007300000000000001+0.0182j;
	z13 0.0073999999999999995+0.0238j;
	z21 0.007300000000000001+0.0182j;
	z22 0.0219+0.0504j;
	z23 0.007500000000000001+0.0201j;
	z31 0.0073999999999999995+0.0238j;
	z32 0.007500000000000001+0.0201j;
	z33 0.0221+0.0496j;
}

object line_configuration {
	name line_config_83_86;
	z11 0;
	z12 0;
	z13 0;
	z21 0;
	z22 0;
	z23 0;
	z31 0;
	z32 0;
	z33 0.1699+0.1723j;
}

object line_configuration {
	name line_config_84_85;
	z11 0.0217+0.051j;
	z12 0.007300000000000001+0.0182j;
	z13 0.0073999999999999995+0.0238j;
	z21 0.007300000000000001+0.0182j;
	z22 0.0219+0.0504j;
	z23 0.007500000000000001+0.0201j;
	z31 0.0073999999999999995+0.0238j;
	z32 0.007500000000000001+0.0201j;
	z33 0.0221+0.0496j;
}

object line_configuration {
	name line_config_86_87;
	z11 0;
	z12 0;
	z13 0;
	z21 0;
	z22 0;
	z23 0;
	z31 0;
	z32 0;
	z33 0.11959999999999998+0.1212j;
}

object line_configuration {
	name line_config_88_89;
	z11 0.039+0.09190000000000001j;
	z12 0.013099999999999999+0.0328j;
	z13 0.013300000000000001+0.0428j;
	z21 0.013099999999999999+0.0328j;
	z22 0.0393+0.09079999999999999j;
	z23 0.0135+0.0361j;
	z31 0.013300000000000001+0.0428j;
	z32 0.0135+0.0361j;
	z33 0.0398+0.0893j;
}

object line_configuration {
	name line_config_89_90;
	z11 0.0441+0.0447j;
	z12 0;
	z13 0;
	z21 0;
	z22 0;
	z23 0;
	z31 0;
	z32 0;
	z33 0;
}

object line_configuration {
	name line_config_89_91;
	z11 0.0238+0.0561j;
	z12 0.008+0.02j;
	z13 0.0081+0.026099999999999998j;
	z21 0.008+0.02j;
	z22 0.024+0.0555j;
	z23 0.0082+0.0221j;
	z31 0.0081+0.026099999999999998j;
	z32 0.0082+0.0221j;
	z33 0.0243+0.0546j;
}

object line_configuration {
	name line_config_91_92;
	z11 0;
	z12 0;
	z13 0;
	z21 0;
	z22 0.0566+0.0574j;
	z23 0;
	z31 0;
	z32 0;
	z33 0;
}

object line_configuration {
	name line_config_91_93;
	z11 0.0195+0.0459j;
	z12 0.0065+0.0164j;
	z13 0.006599999999999999+0.0214j;
	z21 0.0065+0.0164j;
	z22 0.0197+0.045399999999999996j;
	z23 0.0067+0.0181j;
	z31 0.006599999999999999+0.0214j;
	z32 0.0067+0.0181j;
	z33 0.0199+0.0447j;
}

object line_configuration {
	name line_config_93_94;
	z11 0;
	z12 0;
	z13 0;
	z21 0;
	z22 0;
	z23 0;
	z31 0;
	z32 0;
	z33 0.0755+0.0766j;
}

object line_configuration {
	name line_config_93_95;
	z11 0.0195+0.0459j;
	z12 0.0065+0.0164j;
	z13 0.006599999999999999+0.0214j;
	z21 0.0065+0.0164j;
	z22 0.0197+0.045399999999999996j;
	z23 0.0067+0.0181j;
	z31 0.006599999999999999+0.0214j;
	z32 0.0067+0.0181j;
	z33 0.0199+0.0447j;
}

object line_configuration {
	name line_config_95_96;
	z11 0.0692+0.0702j;
	z12 0;
	z13 0;
	z21 0;
	z22 0;
	z23 0;
	z31 0;
	z32 0;
	z33 0;
}

object line_configuration {
	name line_config_95_97;
	z11 0.026+0.0613j;
	z12 0.0087+0.0219j;
	z13 0.0089+0.0285j;
	z21 0.0087+0.0219j;
	z22 0.026199999999999998+0.06049999999999999j;
	z23 0.009+0.0241j;
	z31 0.0089+0.0285j;
	z32 0.009+0.0241j;
	z33 0.026499999999999996+0.05959999999999999j;
}

object line_configuration {
	name line_config_97_98;
	z11 0;
	z12 0;
	z13 0;
	z21 0;
	z22 0.0503+0.051j;
	z23 0;
	z31 0;
	z32 0;
	z33 0;
}

object line_configuration {
	name line_config_99_100;
	z11 0.024+0.0555j;
	z12 0.008+0.02j;
	z13 0.0082+0.0221j;
	z21 0.008+0.02j;
	z22 0.0238+0.0561j;
	z23 0.0081+0.026099999999999998j;
	z31 0.0082+0.0221j;
	z32 0.0081+0.026099999999999998j;
	z33 0.0243+0.0546j;
}

object line_configuration {
	name line_config_100_101;
	z11 0.0481+0.1109j;
	z12 0.016+0.0401j;
	z13 0.0165+0.0441j;
	z21 0.016+0.0401j;
	z22 0.0477+0.1123j;
	z23 0.0163+0.052300000000000006j;
	z31 0.0165+0.0441j;
	z32 0.0163+0.052300000000000006j;
	z33 0.0486+0.1092j;
}

object line_configuration {
	name line_config_101_102;
	z11 0.026199999999999998+0.06049999999999999j;
	z12 0.0087+0.0219j;
	z13 0.009+0.0241j;
	z21 0.0087+0.0219j;
	z22 0.026+0.0613j;
	z23 0.0089+0.0285j;
	z31 0.009+0.0241j;
	z32 0.0089+0.0285j;
	z33 0.026499999999999996+0.05959999999999999j;
}

object line_configuration {
	name line_config_102_123;
	z11 0.0699+0.1614j;
	z12 0.0233+0.0583j;
	z13 0.0239+0.0642j;
	z21 0.0233+0.0583j;
	z22 0.0693+0.1633j;
	z23 0.0236+0.076j;
	z31 0.0239+0.0642j;
	z32 0.0236+0.076j;
	z33 0.0707+0.1588j;
}

object line_configuration {
	name line_config_103_104;
	z11 0;
	z12 0;
	z13 0;
	z21 0;
	z22 0;
	z23 0;
	z31 0;
	z32 0;
	z33 0.0566+0.0574j;
}

object line_configuration {
	name line_config_103_107;
	z11 0.024+0.0555j;
	z12 0.008+0.02j;
	z13 0.0082+0.0221j;
	z21 0.008+0.02j;
	z22 0.0238+0.0561j;
	z23 0.0081+0.026099999999999998j;
	z31 0.0082+0.0221j;
	z32 0.0081+0.026099999999999998j;
	z33 0.0243+0.0546j;
}

object line_configuration {
	name line_config_104_105;
	z11 0;
	z12 0;
	z13 0;
	z21 0;
	z22 0;
	z23 0;
	z31 0;
	z32 0;
	z33 0.0818+0.0829j;
}

object line_configuration {
	name line_config_105_106;
	z11 0;
	z12 0;
	z13 0;
	z21 0;
	z22 0;
	z23 0;
	z31 0;
	z32 0;
	z33 0.1762+0.1786j;
}

object line_configuration {
	name line_config_107_108;
	z11 0;
	z12 0;
	z13 0;
	z21 0;
	z22 0.0566+0.0574j;
	z23 0;
	z31 0;
	z32 0;
	z33 0;
}

object line_configuration {
	name line_config_107_110;
	z11 0.0284+0.0656j;
	z12 0.0094+0.0237j;
	z13 0.0097+0.026099999999999998j;
	z21 0.0094+0.0237j;
	z22 0.0282+0.0664j;
	z23 0.0096+0.0309j;
	z31 0.0097+0.026099999999999998j;
	z32 0.0096+0.0309j;
	z33 0.0287+0.0645j;
}

object line_configuration {
	name line_config_108_109;
	z11 0;
	z12 0;
	z13 0;
	z21 0;
	z22 0.1448+0.1467j;
	z23 0;
	z31 0;
	z32 0;
	z33 0;
}

object line_configuration {
	name line_config_110_111;
	z11 0.1133+0.1148j;
	z12 0;
	z13 0;
	z21 0;
	z22 0;
	z23 0;
	z31 0;
	z32 0;
	z33 0;
}

object line_configuration {
	name line_config_110_121;
	z11 0.0874+0.20169999999999996j;
	z12 0.029100000000000004+0.0729j;
	z13 0.029899999999999996+0.0802j;
	z21 0.029100000000000004+0.0729j;
	z22 0.0867+0.2042j;
	z23 0.0295+0.095j;
	z31 0.029899999999999996+0.0802j;
	z32 0.0295+0.095j;
	z33 0.0884+0.1985j;
}

object line_configuration {
	name line_config_111_112;
	z11 0.0755+0.0766j;
	z12 0;
	z13 0;
	z21 0;
	z22 0;
	z23 0;
	z31 0;
	z32 0;
	z33 0;
}

object line_configuration {
	name line_config_112_113;
	z11 0.1448+0.1467j;
	z12 0;
	z13 0;
	z21 0;
	z22 0;
	z23 0;
	z31 0;
	z32 0;
	z33 0;
}

object line_configuration {
	name line_config_112_114;
	z11 0.0315+0.0319j;
	z12 0;
	z13 0;
	z21 0;
	z22 0;
	z23 0;
	z31 0;
	z32 0;
	z33 0;
}

object line_configuration {
	name line_config_114_115;
	z11 0.1322+0.134j;
	z12 0;
	z13 0;
	z21 0;
	z22 0;
	z23 0;
	z31 0;
	z32 0;
	z33 0;
}

object line_configuration {
	name line_config_115_116;
	z11 0.0818+0.0829j;
	z12 0;
	z13 0;
	z21 0;
	z22 0;
	z23 0;
	z31 0;
	z32 0;
	z33 0;
}

object line_configuration {
	name line_config_118_37;
	z11 0.0328+0.0756j;
	z12 0.0112+0.030100000000000002j;
	z13 0.0109+0.0273j;
	z21 0.0112+0.030100000000000002j;
	z22 0.0331+0.0744j;
	z23 0.0111+0.0356j;
	z31 0.0109+0.0273j;
	z32 0.0111+0.0356j;
	z33 0.0325+0.0766j;
}

object line_configuration {
	name line_config_117_54;
	z11 0.0347+0.0817j;
	z12 0.0118+0.038j;
	z13 0.011599999999999997+0.029200000000000004j;
	z21 0.0118+0.038j;
	z22 0.0353+0.0794j;
	z23 0.012+0.0321j;
	z31 0.011599999999999997+0.029200000000000004j;
	z32 0.012+0.0321j;
	z33 0.035+0.0807j;
}

object line_configuration {
	name line_config_53_120;
	z11 0.0437+0.1009j;
	z12 0.015000000000000001+0.0401j;
	z13 0.014500000000000002+0.0364j;
	z21 0.015000000000000001+0.0401j;
	z22 0.0442+0.0993j;
	z23 0.014799999999999999+0.0475j;
	z31 0.014500000000000002+0.0364j;
	z32 0.014799999999999999+0.0475j;
	z33 0.0433+0.1021j;
}

object line_configuration {
	name line_config_125_69;
	z11 0.00010000000000000002+0.00010000000000000002j;
	z12 0;
	z13 0;
	z21 0;
	z22 0.00010000000000000002+0.00010000000000000002j;
	z23 0;
	z31 0;
	z32 0;
	z33 0.00010000000000000002+0.00010000000000000002j;
}

object line_configuration {
	name line_config_124_103;
	z11 0.0219+0.0504j;
	z12 0.007300000000000001+0.0182j;
	z13 0.007500000000000001+0.0201j;
	z21 0.007300000000000001+0.0182j;
	z22 0.0217+0.051j;
	z23 0.0073999999999999995+0.0238j;
	z31 0.007500000000000001+0.0201j;
	z32 0.0073999999999999995+0.0238j;
	z33 0.0221+0.0496j;
}

object line_configuration {
	name line_config_15_117;
	z11 1e-06+0j;
	z12 0;
	z13 0;
	z21 0;
	z22 1e-06+0j;
	z23 0;
	z31 0;
	z32 0;
	z33 1e-06+0j;
}

object line_configuration {
	name line_config_20_118;
	z11 1e-06+0j;
	z12 0;
	z13 0;
	z21 0;
	z22 1e-06+0j;
	z23 0;
	z31 0;
	z32 0;
	z33 1e-06+0j;
}

object line_configuration {
	name line_config_62_125;
	z11 1e-06+0j;
	z12 0;
	z13 0;
	z21 0;
	z22 1e-06+0j;
	z23 0;
	z31 0;
	z32 0;
	z33 1e-06+0j;
}

object line_configuration {
	name line_config_99_124;
	z11 1e-06+0j;
	z12 0;
	z13 0;
	z21 0;
	z22 1e-06+0j;
	z23 0;
	z31 0;
	z32 0;
	z33 1e-06+0j;
}

object line_configuration {
	name line_config_63_122;
	z11 0.0127+0.0272j;
	z12 0;
	z13 0;
	z21 0;
	z22 0.0127+0.0272j;
	z23 0;
	z31 0;
	z32 0;
	z33 0.0127+0.0272j;
}

object overhead_line {
	name oh_line_1_2;
	phases ABCN;
	from node_1;
	to node_2;
	configuration line_config_1_2;
	length 5280;
}

object overhead_line {
	name oh_line_2_3;
	phases ABCN;
	from node_2;
	to node_3;
	configuration line_config_2_3;
	length 5280;
}

object overhead_line {
	name oh_line_3_4;
	phases BN;
	from node_3;
	to node_4;
	configuration line_config_3_4;
	length 5280;
}

object overhead_line {
	name oh_line_3_5;
	phases CN;
	from node_3;
	to node_5;
	configuration line_config_3_5;
	length 5280;
}

object overhead_line {
	name oh_line_3_9;
	phases ABCN;
	from node_3;
	to node_9;
	configuration line_config_3_9;
	length 5280;
}

object overhead_line {
	name oh_line_5_6;
	phases CN;
	from node_5;
	to node_6;
	configuration line_config_5_6;
	length 5280;
}

object overhead_line {
	name oh_line_5_7;
	phases CN;
	from node_5;
	to node_7;
	configuration line_config_5_7;
	length 5280;
}

object overhead_line {
	name oh_line_7_8;
	phases CN;
	from node_7;
	to node_8;
	configuration line_config_7_8;
	length 5280;
}

object overhead_line {
	name oh_line_9_10;
	phases ABCN;
	from node_9;
	to node_10;
	configuration line_config_9_10;
	length 5280;
}

object overhead_line {
	name oh_line_10_14;
	phases BN;
	from node_10;
	to node_14;
	configuration line_config_10_14;
	length 5280;
}

object overhead_line {
	name oh_line_10_11;
	phases AN;
	from node_10;
	to node_11;
	configuration line_config_10_11;
	length 5280;
}

object overhead_line {
	name oh_line_10_15;
	phases ABCN;
	from node_10;
	to node_15;
	configuration line_config_10_15;
	length 5280;
}

object overhead_line {
	name oh_line_11_16;
	phases AN;
	from node_11;
	to node_16;
	configuration line_config_11_16;
	length 5280;
}

object overhead_line {
	name oh_line_15_36;
	phases CN;
	from node_15;
	to node_36;
	configuration line_config_15_36;
	length 5280;
}

object overhead_line {
	name oh_line_15_20;
	phases ABCN;
	from node_15;
	to node_20;
	configuration line_config_15_20;
	length 5280;
}

object overhead_line {
	name oh_line_16_13;
	phases AN;
	from node_16;
	to node_13;
	configuration line_config_16_13;
	length 5280;
}

object overhead_line {
	name oh_line_16_12;
	phases AN;
	from node_16;
	to node_12;
	configuration line_config_16_12;
	length 5280;
}

object overhead_line {
	name oh_line_17_18;
	phases CN;
	from node_17;
	to node_18;
	configuration line_config_17_18;
	length 5280;
}

object overhead_line {
	name oh_line_17_19;
	phases CN;
	from node_17;
	to node_19;
	configuration line_config_17_19;
	length 5280;
}

object overhead_line {
	name oh_line_20_21;
	phases AN;
	from node_20;
	to node_21;
	configuration line_config_20_21;
	length 5280;
}

object overhead_line {
	name oh_line_20_23;
	phases ABCN;
	from node_20;
	to node_23;
	configuration line_config_20_23;
	length 5280;
}

object overhead_line {
	name oh_line_21_22;
	phases AN;
	from node_21;
	to node_22;
	configuration line_config_21_22;
	length 5280;
}

object overhead_line {
	name oh_line_23_24;
	phases BN;
	from node_23;
	to node_24;
	configuration line_config_23_24;
	length 5280;
}

object overhead_line {
	name oh_line_23_25;
	phases ABCN;
	from node_23;
	to node_25;
	configuration line_config_23_25;
	length 5280;
}

object overhead_line {
	name oh_line_25_26;
	phases CN;
	from node_25;
	to node_26;
	configuration line_config_25_26;
	length 5280;
}

object overhead_line {
	name oh_line_25_27;
	phases ABCN;
	from node_25;
	to node_27;
	configuration line_config_25_27;
	length 5280;
}

object overhead_line {
	name oh_line_27_28;
	phases ACN;
	from node_27;
	to node_28;
	configuration line_config_27_28;
	length 5280;
}

object overhead_line {
	name oh_line_27_30;
	phases ABCN;
	from node_27;
	to node_30;
	configuration line_config_27_30;
	length 5280;
}

object overhead_line {
	name oh_line_28_29;
	phases AN;
	from node_28;
	to node_29;
	configuration line_config_28_29;
	length 5280;
}

object overhead_line {
	name oh_line_28_33;
	phases CN;
	from node_28;
	to node_33;
	configuration line_config_28_33;
	length 5280;
}

object overhead_line {
	name oh_line_29_35;
	phases AN;
	from node_29;
	to node_35;
	configuration line_config_29_35;
	length 5280;
}

object overhead_line {
	name oh_line_30_31;
	phases ABCN;
	from node_30;
	to node_31;
	configuration line_config_30_31;
	length 5280;
}

object overhead_line {
	name oh_line_31_32;
	phases ABCN;
	from node_31;
	to node_32;
	configuration line_config_31_32;
	length 5280;
}

object overhead_line {
	name oh_line_32_119;
	phases ABCN;
	from node_32;
	to node_119;
	configuration line_config_32_119;
	length 5280;
}

object overhead_line {
	name oh_line_33_34;
	phases CN;
	from node_33;
	to node_34;
	configuration line_config_33_34;
	length 5280;
}

object overhead_line {
	name oh_line_36_17;
	phases CN;
	from node_36;
	to node_17;
	configuration line_config_36_17;
	length 5280;
}

object overhead_line {
	name oh_line_37_38;
	phases ABN;
	from node_37;
	to node_38;
	configuration line_config_37_38;
	length 5280;
}

object overhead_line {
	name oh_line_37_42;
	phases ABCN;
	from node_37;
	to node_42;
	configuration line_config_37_42;
	length 5280;
}

object overhead_line {
	name oh_line_38_39;
	phases AN;
	from node_38;
	to node_39;
	configuration line_config_38_39;
	length 5280;
}

object overhead_line {
	name oh_line_38_40;
	phases BN;
	from node_38;
	to node_40;
	configuration line_config_38_40;
	length 5280;
}

object overhead_line {
	name oh_line_40_41;
	phases BN;
	from node_40;
	to node_41;
	configuration line_config_40_41;
	length 5280;
}

object overhead_line {
	name oh_line_42_43;
	phases CN;
	from node_42;
	to node_43;
	configuration line_config_42_43;
	length 5280;
}

object overhead_line {
	name oh_line_42_44;
	phases ABCN;
	from node_42;
	to node_44;
	configuration line_config_42_44;
	length 5280;
}

object overhead_line {
	name oh_line_44_45;
	phases BN;
	from node_44;
	to node_45;
	configuration line_config_44_45;
	length 5280;
}

object overhead_line {
	name oh_line_44_46;
	phases ABCN;
	from node_44;
	to node_46;
	configuration line_config_44_46;
	length 5280;
}

object overhead_line {
	name oh_line_46_47;
	phases AN;
	from node_46;
	to node_47;
	configuration line_config_46_47;
	length 5280;
}

object overhead_line {
	name oh_line_46_49;
	phases ABCN;
	from node_46;
	to node_49;
	configuration line_config_46_49;
	length 5280;
}

object overhead_line {
	name oh_line_47_48;
	phases AN;
	from node_47;
	to node_48;
	configuration line_config_47_48;
	length 5280;
}

object overhead_line {
	name oh_line_49_50;
	phases ABCN;
	from node_49;
	to node_50;
	configuration line_config_49_50;
	length 5280;
}

object overhead_line {
	name oh_line_49_51;
	phases ABCN;
	from node_49;
	to node_51;
	configuration line_config_49_51;
	length 5280;
}

object overhead_line {
	name oh_line_51_52;
	phases ABCN;
	from node_51;
	to node_52;
	configuration line_config_51_52;
	length 5280;
}

object overhead_line {
	name oh_line_52_53;
	phases ABCN;
	from node_52;
	to node_53;
	configuration line_config_52_53;
	length 5280;
}

object overhead_line {
	name oh_line_54_55;
	phases ABCN;
	from node_54;
	to node_55;
	configuration line_config_54_55;
	length 5280;
}

object overhead_line {
	name oh_line_55_56;
	phases ABCN;
	from node_55;
	to node_56;
	configuration line_config_55_56;
	length 5280;
}

object overhead_line {
	name oh_line_56_57;
	phases ABCN;
	from node_56;
	to node_57;
	configuration line_config_56_57;
	length 5280;
}

object overhead_line {
	name oh_line_56_59;
	phases ABCN;
	from node_56;
	to node_59;
	configuration line_config_56_59;
	length 5280;
}

object overhead_line {
	name oh_line_57_58;
	phases ABCN;
	from node_57;
	to node_58;
	configuration line_config_57_58;
	length 5280;
}

object overhead_line {
	name oh_line_59_60;
	phases BN;
	from node_59;
	to node_60;
	configuration line_config_59_60;
	length 5280;
}

object overhead_line {
	name oh_line_59_62;
	phases ABCN;
	from node_59;
	to node_62;
	configuration line_config_59_62;
	length 5280;
}

object overhead_line {
	name oh_line_60_61;
	phases BN;
	from node_60;
	to node_61;
	configuration line_config_60_61;
	length 5280;
}

object overhead_line {
	name oh_line_62_63;
	phases ABCN;
	from node_62;
	to node_63;
	configuration line_config_62_63;
	length 5280;
}

object overhead_line {
	name oh_line_62_64;
	phases ABCN;
	from node_62;
	to node_64;
	configuration line_config_62_64;
	length 5280;
}

object overhead_line {
	name oh_line_64_65;
	phases ABCN;
	from node_64;
	to node_65;
	configuration line_config_64_65;
	length 5280;
}

object overhead_line {
	name oh_line_65_66;
	phases ABCN;
	from node_65;
	to node_66;
	configuration line_config_65_66;
	length 5280;
}

object overhead_line {
	name oh_line_66_67;
	phases ABCN;
	from node_66;
	to node_67;
	configuration line_config_66_67;
	length 5280;
}

object overhead_line {
	name oh_line_67_68;
	phases ABCN;
	from node_67;
	to node_68;
	configuration line_config_67_68;
	length 5280;
}

object overhead_line {
	name oh_line_69_70;
	phases AN;
	from node_69;
	to node_70;
	configuration line_config_69_70;
	length 5280;
}

object overhead_line {
	name oh_line_69_74;
	phases ABCN;
	from node_69;
	to node_74;
	configuration line_config_69_74;
	length 5280;
}

object overhead_line {
	name oh_line_69_99;
	phases ABCN;
	from node_69;
	to node_99;
	configuration line_config_69_99;
	length 5280;
}

object overhead_line {
	name oh_line_70_71;
	phases AN;
	from node_70;
	to node_71;
	configuration line_config_70_71;
	length 5280;
}

object overhead_line {
	name oh_line_71_72;
	phases AN;
	from node_71;
	to node_72;
	configuration line_config_71_72;
	length 5280;
}

object overhead_line {
	name oh_line_72_73;
	phases AN;
	from node_72;
	to node_73;
	configuration line_config_72_73;
	length 5280;
}

object overhead_line {
	name oh_line_74_75;
	phases CN;
	from node_74;
	to node_75;
	configuration line_config_74_75;
	length 5280;
}

object overhead_line {
	name oh_line_74_78;
	phases ABCN;
	from node_74;
	to node_78;
	configuration line_config_74_78;
	length 5280;
}

object overhead_line {
	name oh_line_75_76;
	phases CN;
	from node_75;
	to node_76;
	configuration line_config_75_76;
	length 5280;
}

object overhead_line {
	name oh_line_76_77;
	phases CN;
	from node_76;
	to node_77;
	configuration line_config_76_77;
	length 5280;
}

object overhead_line {
	name oh_line_78_79;
	phases ABCN;
	from node_78;
	to node_79;
	configuration line_config_78_79;
	length 5280;
}

object overhead_line {
	name oh_line_78_88;
	phases ABCN;
	from node_78;
	to node_88;
	configuration line_config_78_88;
	length 5280;
}

object overhead_line {
	name oh_line_79_80;
	phases ABCN;
	from node_79;
	to node_80;
	configuration line_config_79_80;
	length 5280;
}

object overhead_line {
	name oh_line_80_81;
	phases ABCN;
	from node_80;
	to node_81;
	configuration line_config_80_81;
	length 5280;
}

object overhead_line {
	name oh_line_80_82;
	phases ABCN;
	from node_80;
	to node_82;
	configuration line_config_80_82;
	length 5280;
}

object overhead_line {
	name oh_line_82_83;
	phases ABCN;
	from node_82;
	to node_83;
	configuration line_config_82_83;
	length 5280;
}

object overhead_line {
	name oh_line_83_84;
	phases ABCN;
	from node_83;
	to node_84;
	configuration line_config_83_84;
	length 5280;
}

object overhead_line {
	name oh_line_83_86;
	phases CN;
	from node_83;
	to node_86;
	configuration line_config_83_86;
	length 5280;
}

object overhead_line {
	name oh_line_84_85;
	phases ABCN;
	from node_84;
	to node_85;
	configuration line_config_84_85;
	length 5280;
}

object overhead_line {
	name oh_line_86_87;
	phases CN;
	from node_86;
	to node_87;
	configuration line_config_86_87;
	length 5280;
}

object overhead_line {
	name oh_line_88_89;
	phases ABCN;
	from node_88;
	to node_89;
	configuration line_config_88_89;
	length 5280;
}

object overhead_line {
	name oh_line_89_90;
	phases AN;
	from node_89;
	to node_90;
	configuration line_config_89_90;
	length 5280;
}

object overhead_line {
	name oh_line_89_91;
	phases ABCN;
	from node_89;
	to node_91;
	configuration line_config_89_91;
	length 5280;
}

object overhead_line {
	name oh_line_91_92;
	phases BN;
	from node_91;
	to node_92;
	configuration line_config_91_92;
	length 5280;
}

object overhead_line {
	name oh_line_91_93;
	phases ABCN;
	from node_91;
	to node_93;
	configuration line_config_91_93;
	length 5280;
}

object overhead_line {
	name oh_line_93_94;
	phases CN;
	from node_93;
	to node_94;
	configuration line_config_93_94;
	length 5280;
}

object overhead_line {
	name oh_line_93_95;
	phases ABCN;
	from node_93;
	to node_95;
	configuration line_config_93_95;
	length 5280;
}

object overhead_line {
	name oh_line_95_96;
	phases AN;
	from node_95;
	to node_96;
	configuration line_config_95_96;
	length 5280;
}

object overhead_line {
	name oh_line_95_97;
	phases ABCN;
	from node_95;
	to node_97;
	configuration line_config_95_97;
	length 5280;
}

object overhead_line {
	name oh_line_97_98;
	phases BN;
	from node_97;
	to node_98;
	configuration line_config_97_98;
	length 5280;
}

object overhead_line {
	name oh_line_99_100;
	phases ABCN;
	from node_99;
	to node_100;
	configuration line_config_99_100;
	length 5280;
}

object overhead_line {
	name oh_line_100_101;
	phases ABCN;
	from node_100;
	to node_101;
	configuration line_config_100_101;
	length 5280;
}

object overhead_line {
	name oh_line_101_102;
	phases ABCN;
	from node_101;
	to node_102;
	configuration line_config_101_102;
	length 5280;
}

object overhead_line {
	name oh_line_102_123;
	phases ABCN;
	from node_102;
	to node_123;
	configuration line_config_102_123;
	length 5280;
}

object overhead_line {
	name oh_line_103_104;
	phases CN;
	from node_103;
	to node_104;
	configuration line_config_103_104;
	length 5280;
}

object overhead_line {
	name oh_line_103_107;
	phases ABCN;
	from node_103;
	to node_107;
	configuration line_config_103_107;
	length 5280;
}

object overhead_line {
	name oh_line_104_105;
	phases CN;
	from node_104;
	to node_105;
	configuration line_config_104_105;
	length 5280;
}

object overhead_line {
	name oh_line_105_106;
	phases CN;
	from node_105;
	to node_106;
	configuration line_config_105_106;
	length 5280;
}

object overhead_line {
	name oh_line_107_108;
	phases BN;
	from node_107;
	to node_108;
	configuration line_config_107_108;
	length 5280;
}

object overhead_line {
	name oh_line_107_110;
	phases ABCN;
	from node_107;
	to node_110;
	configuration line_config_107_110;
	length 5280;
}

object overhead_line {
	name oh_line_108_109;
	phases BN;
	from node_108;
	to node_109;
	configuration line_config_108_109;
	length 5280;
}

object overhead_line {
	name oh_line_110_111;
	phases AN;
	from node_110;
	to node_111;
	configuration line_config_110_111;
	length 5280;
}

object overhead_line {
	name oh_line_110_121;
	phases ABCN;
	from node_110;
	to node_121;
	configuration line_config_110_121;
	length 5280;
}

object overhead_line {
	name oh_line_111_112;
	phases AN;
	from node_111;
	to node_112;
	configuration line_config_111_112;
	length 5280;
}

object overhead_line {
	name oh_line_112_113;
	phases AN;
	from node_112;
	to node_113;
	configuration line_config_112_113;
	length 5280;
}

object overhead_line {
	name oh_line_112_114;
	phases AN;
	from node_112;
	to node_114;
	configuration line_config_112_114;
	length 5280;
}

object overhead_line {
	name oh_line_114_115;
	phases AN;
	from node_114;
	to node_115;
	configuration line_config_114_115;
	length 5280;
}

object overhead_line {
	name oh_line_115_116;
	phases AN;
	from node_115;
	to node_116;
	configuration line_config_115_116;
	length 5280;
}

object overhead_line {
	name oh_line_118_37;
	phases ABCN;
	from node_118;
	to node_37;
	configuration line_config_118_37;
	length 5280;
}

object overhead_line {
	name oh_line_117_54;
	phases ABCN;
	from node_117;
	to node_54;
	configuration line_config_117_54;
	length 5280;
}

object overhead_line {
	name oh_line_53_120;
	phases ABCN;
	from node_53;
	to node_120;
	configuration line_config_53_120;
	length 5280;
}

object overhead_line {
	name oh_line_125_69;
	phases ABCN;
	from node_125;
	to node_69;
	configuration line_config_125_69;
	length 5280;
}

object overhead_line {
	name oh_line_124_103;
	phases ABCN;
	from node_124;
	to node_103;
	configuration line_config_124_103;
	length 5280;
}

object overhead_line {
	name oh_line_15_117;
	phases ABCN;
	from node_15;
	to node_117;
	configuration line_config_15_117;
	length 5280;
}

object overhead_line {
	name oh_line_20_118;
	phases ABCN;
	from node_20;
	to node_118;
	configuration line_config_20_118;
	length 5280;
}

object overhead_line {
	name oh_line_62_125;
	phases ABCN;
	from node_62;
	to node_125;
	configuration line_config_62_125;
	length 5280;
}

object overhead_line {
	name oh_line_99_124;
	phases ABCN;
	from node_99;
	to node_124;
	configuration line_config_99_124;
	length 5280;
}

object overhead_line {
	name oh_line_63_122;
	phases ABCN;
	from node_63;
	to node_122;
	configuration line_config_63_122;
	length 5280;
}

object load {
	name load_3_p;
	parent node_3;
	phases ABCN;
	nominal_voltage 2401.7771198288433;
	base_power_A 40000.0;
	base_power_B 0.0;
	base_power_C 0.0;
	power_pf_A 1;
	power_pf_B 1;
	power_pf_C 1;
	impedance_pf_A 1;
	impedance_pf_B 1;
	impedance_pf_C 1;
	power_fraction_A 1.0;
	power_fraction_B 1.0;
	power_fraction_C 1.0;
	current_fraction_A 0;
	current_fraction_B 0;
	current_fraction_C 0;
	impedance_fraction_A 0.0;
	impedance_fraction_B 0.0;
	impedance_fraction_C 0.0;
}

object load {
	name load_3_q;
	parent node_3;
	phases ABCN;
	nominal_voltage 2401.7771198288433;
	base_power_A 20000.0;
	base_power_B 0.0;
	base_power_C 0.0;
	power_pf_A 0;
	power_pf_B 0;
	power_pf_C 0;
	impedance_pf_A 0;
	impedance_pf_B 0;
	impedance_pf_C 0;
	power_fraction_A 1.0;
	power_fraction_B 1.0;
	power_fraction_C 1.0;
	current_fraction_A 0;
	current_fraction_B 0;
	current_fraction_C 0;
	impedance_fraction_A 0.0;
	impedance_fraction_B 0.0;
	impedance_fraction_C 0.0;
}

object load {
	name load_4_p;
	parent node_4;
	phases BN;
	nominal_voltage 2401.7771198288433;
	base_power_A 0.0;
	base_power_B 20000.0;
	base_power_C 0.0;
	power_pf_A 1;
	power_pf_B 1;
	power_pf_C 1;
	impedance_pf_A 1;
	impedance_pf_B 1;
	impedance_pf_C 1;
	power_fraction_A 1.0;
	power_fraction_B 1.0;
	power_fraction_C 1.0;
	current_fraction_A 0;
	current_fraction_B 0;
	current_fraction_C 0;
	impedance_fraction_A 0.0;
	impedance_fraction_B 0.0;
	impedance_fraction_C 0.0;
}

object load {
	name load_4_q;
	parent node_4;
	phases BN;
	nominal_voltage 2401.7771198288433;
	base_power_A 0.0;
	base_power_B 10000.0;
	base_power_C 0.0;
	power_pf_A 0;
	power_pf_B 0;
	power_pf_C 0;
	impedance_pf_A 0;
	impedance_pf_B 0;
	impedance_pf_C 0;
	power_fraction_A 1.0;
	power_fraction_B 1.0;
	power_fraction_C 1.0;
	current_fraction_A 0;
	current_fraction_B 0;
	current_fraction_C 0;
	impedance_fraction_A 0.0;
	impedance_fraction_B 0.0;
	impedance_fraction_C 0.0;
}

object load {
	name load_6_p;
	parent node_6;
	phases CN;
	nominal_voltage 2401.7771198288433;
	base_power_A 0.0;
	base_power_B 0.0;
	base_power_C 40000.0;
	power_pf_A 1;
	power_pf_B 1;
	power_pf_C 1;
	impedance_pf_A 1;
	impedance_pf_B 1;
	impedance_pf_C 1;
	power_fraction_A 1.0;
	power_fraction_B 1.0;
	power_fraction_C 1.0;
	current_fraction_A 0;
	current_fraction_B 0;
	current_fraction_C 0;
	impedance_fraction_A 0.0;
	impedance_fraction_B 0.0;
	impedance_fraction_C 0.0;
}

object load {
	name load_6_q;
	parent node_6;
	phases CN;
	nominal_voltage 2401.7771198288433;
	base_power_A 0.0;
	base_power_B 0.0;
	base_power_C 20000.0;
	power_pf_A 0;
	power_pf_B 0;
	power_pf_C 0;
	impedance_pf_A 0;
	impedance_pf_B 0;
	impedance_pf_C 0;
	power_fraction_A 1.0;
	power_fraction_B 1.0;
	power_fraction_C 1.0;
	current_fraction_A 0;
	current_fraction_B 0;
	current_fraction_C 0;
	impedance_fraction_A 0.0;
	impedance_fraction_B 0.0;
	impedance_fraction_C 0.0;
}

object load {
	name load_7_p;
	parent node_7;
	phases CN;
	nominal_voltage 2401.7771198288433;
	base_power_A 0.0;
	base_power_B 0.0;
	base_power_C 20000.0;
	power_pf_A 1;
	power_pf_B 1;
	power_pf_C 1;
	impedance_pf_A 1;
	impedance_pf_B 1;
	impedance_pf_C 1;
	power_fraction_A 1.0;
	power_fraction_B 1.0;
	power_fraction_C 1.0;
	current_fraction_A 0;
	current_fraction_B 0;
	current_fraction_C 0;
	impedance_fraction_A 0.0;
	impedance_fraction_B 0.0;
	impedance_fraction_C 0.0;
}

object load {
	name load_7_q;
	parent node_7;
	phases CN;
	nominal_voltage 2401.7771198288433;
	base_power_A 0.0;
	base_power_B 0.0;
	base_power_C 10000.0;
	power_pf_A 0;
	power_pf_B 0;
	power_pf_C 0;
	impedance_pf_A 0;
	impedance_pf_B 0;
	impedance_pf_C 0;
	power_fraction_A 1.0;
	power_fraction_B 1.0;
	power_fraction_C 1.0;
	current_fraction_A 0;
	current_fraction_B 0;
	current_fraction_C 0;
	impedance_fraction_A 0.0;
	impedance_fraction_B 0.0;
	impedance_fraction_C 0.0;
}

object load {
	name load_8_p;
	parent node_8;
	phases CN;
	nominal_voltage 2401.7771198288433;
	base_power_A 0.0;
	base_power_B 0.0;
	base_power_C 40000.0;
	power_pf_A 1;
	power_pf_B 1;
	power_pf_C 1;
	impedance_pf_A 1;
	impedance_pf_B 1;
	impedance_pf_C 1;
	power_fraction_A 1.0;
	power_fraction_B 1.0;
	power_fraction_C 1.0;
	current_fraction_A 0;
	current_fraction_B 0;
	current_fraction_C 0;
	impedance_fraction_A 0.0;
	impedance_fraction_B 0.0;
	impedance_fraction_C 0.0;
}

object load {
	name load_8_q;
	parent node_8;
	phases CN;
	nominal_voltage 2401.7771198288433;
	base_power_A 0.0;
	base_power_B 0.0;
	base_power_C 20000.0;
	power_pf_A 0;
	power_pf_B 0;
	power_pf_C 0;
	impedance_pf_A 0;
	impedance_pf_B 0;
	impedance_pf_C 0;
	power_fraction_A 1.0;
	power_fraction_B 1.0;
	power_fraction_C 1.0;
	current_fraction_A 0;
	current_fraction_B 0;
	current_fraction_C 0;
	impedance_fraction_A 0.0;
	impedance_fraction_B 0.0;
	impedance_fraction_C 0.0;
}

object load {
	name load_9_p;
	parent node_9;
	phases ABCN;
	nominal_voltage 2401.7771198288433;
	base_power_A 20000.0;
	base_power_B 0.0;
	base_power_C 0.0;
	power_pf_A 1;
	power_pf_B 1;
	power_pf_C 1;
	impedance_pf_A 1;
	impedance_pf_B 1;
	impedance_pf_C 1;
	power_fraction_A 1.0;
	power_fraction_B 1.0;
	power_fraction_C 1.0;
	current_fraction_A 0;
	current_fraction_B 0;
	current_fraction_C 0;
	impedance_fraction_A 0.0;
	impedance_fraction_B 0.0;
	impedance_fraction_C 0.0;
}

object load {
	name load_9_q;
	parent node_9;
	phases ABCN;
	nominal_voltage 2401.7771198288433;
	base_power_A 10000.0;
	base_power_B 0.0;
	base_power_C 0.0;
	power_pf_A 0;
	power_pf_B 0;
	power_pf_C 0;
	impedance_pf_A 0;
	impedance_pf_B 0;
	impedance_pf_C 0;
	power_fraction_A 1.0;
	power_fraction_B 1.0;
	power_fraction_C 1.0;
	current_fraction_A 0;
	current_fraction_B 0;
	current_fraction_C 0;
	impedance_fraction_A 0.0;
	impedance_fraction_B 0.0;
	impedance_fraction_C 0.0;
}

object load {
	name load_11_p;
	parent node_11;
	phases AN;
	nominal_voltage 2401.7771198288433;
	base_power_A 40000.0;
	base_power_B 0.0;
	base_power_C 0.0;
	power_pf_A 1;
	power_pf_B 1;
	power_pf_C 1;
	impedance_pf_A 1;
	impedance_pf_B 1;
	impedance_pf_C 1;
	power_fraction_A 1.0;
	power_fraction_B 1.0;
	power_fraction_C 1.0;
	current_fraction_A 0;
	current_fraction_B 0;
	current_fraction_C 0;
	impedance_fraction_A 0.0;
	impedance_fraction_B 0.0;
	impedance_fraction_C 0.0;
}

object load {
	name load_11_q;
	parent node_11;
	phases AN;
	nominal_voltage 2401.7771198288433;
	base_power_A 20000.0;
	base_power_B 0.0;
	base_power_C 0.0;
	power_pf_A 0;
	power_pf_B 0;
	power_pf_C 0;
	impedance_pf_A 0;
	impedance_pf_B 0;
	impedance_pf_C 0;
	power_fraction_A 1.0;
	power_fraction_B 1.0;
	power_fraction_C 1.0;
	current_fraction_A 0;
	current_fraction_B 0;
	current_fraction_C 0;
	impedance_fraction_A 0.0;
	impedance_fraction_B 0.0;
	impedance_fraction_C 0.0;
}

object load {
	name load_12_p;
	parent node_12;
	phases AN;
	nominal_voltage 2401.7771198288433;
	base_power_A 20000.0;
	base_power_B 0.0;
	base_power_C 0.0;
	power_pf_A 1;
	power_pf_B 1;
	power_pf_C 1;
	impedance_pf_A 1;
	impedance_pf_B 1;
	impedance_pf_C 1;
	power_fraction_A 1.0;
	power_fraction_B 1.0;
	power_fraction_C 1.0;
	current_fraction_A 0;
	current_fraction_B 0;
	current_fraction_C 0;
	impedance_fraction_A 0.0;
	impedance_fraction_B 0.0;
	impedance_fraction_C 0.0;
}

object load {
	name load_12_q;
	parent node_12;
	phases AN;
	nominal_voltage 2401.7771198288433;
	base_power_A 10000.0;
	base_power_B 0.0;
	base_power_C 0.0;
	power_pf_A 0;
	power_pf_B 0;
	power_pf_C 0;
	impedance_pf_A 0;
	impedance_pf_B 0;
	impedance_pf_C 0;
	power_fraction_A 1.0;
	power_fraction_B 1.0;
	power_fraction_C 1.0;
	current_fraction_A 0;
	current_fraction_B 0;
	current_fraction_C 0;
	impedance_fraction_A 0.0;
	impedance_fraction_B 0.0;
	impedance_fraction_C 0.0;
}

object load {
	name load_13_p;
	parent node_13;
	phases AN;
	nominal_voltage 2401.7771198288433;
	base_power_A 40000.0;
	base_power_B 0.0;
	base_power_C 0.0;
	power_pf_A 1;
	power_pf_B 1;
	power_pf_C 1;
	impedance_pf_A 1;
	impedance_pf_B 1;
	impedance_pf_C 1;
	power_fraction_A 1.0;
	power_fraction_B 1.0;
	power_fraction_C 1.0;
	current_fraction_A 0;
	current_fraction_B 0;
	current_fraction_C 0;
	impedance_fraction_A 0.0;
	impedance_fraction_B 0.0;
	impedance_fraction_C 0.0;
}

object load {
	name load_13_q;
	parent node_13;
	phases AN;
	nominal_voltage 2401.7771198288433;
	base_power_A 20000.0;
	base_power_B 0.0;
	base_power_C 0.0;
	power_pf_A 0;
	power_pf_B 0;
	power_pf_C 0;
	impedance_pf_A 0;
	impedance_pf_B 0;
	impedance_pf_C 0;
	power_fraction_A 1.0;
	power_fraction_B 1.0;
	power_fraction_C 1.0;
	current_fraction_A 0;
	current_fraction_B 0;
	current_fraction_C 0;
	impedance_fraction_A 0.0;
	impedance_fraction_B 0.0;
	impedance_fraction_C 0.0;
}

object load {
	name load_14_p;
	parent node_14;
	phases BN;
	nominal_voltage 2401.7771198288433;
	base_power_A 0.0;
	base_power_B 20000.0;
	base_power_C 0.0;
	power_pf_A 1;
	power_pf_B 1;
	power_pf_C 1;
	impedance_pf_A 1;
	impedance_pf_B 1;
	impedance_pf_C 1;
	power_fraction_A 1.0;
	power_fraction_B 1.0;
	power_fraction_C 1.0;
	current_fraction_A 0;
	current_fraction_B 0;
	current_fraction_C 0;
	impedance_fraction_A 0.0;
	impedance_fraction_B 0.0;
	impedance_fraction_C 0.0;
}

object load {
	name load_14_q;
	parent node_14;
	phases BN;
	nominal_voltage 2401.7771198288433;
	base_power_A 0.0;
	base_power_B 10000.0;
	base_power_C 0.0;
	power_pf_A 0;
	power_pf_B 0;
	power_pf_C 0;
	impedance_pf_A 0;
	impedance_pf_B 0;
	impedance_pf_C 0;
	power_fraction_A 1.0;
	power_fraction_B 1.0;
	power_fraction_C 1.0;
	current_fraction_A 0;
	current_fraction_B 0;
	current_fraction_C 0;
	impedance_fraction_A 0.0;
	impedance_fraction_B 0.0;
	impedance_fraction_C 0.0;
}

object load {
	name load_18_p;
	parent node_18;
	phases CN;
	nominal_voltage 2401.7771198288433;
	base_power_A 0.0;
	base_power_B 0.0;
	base_power_C 40000.0;
	power_pf_A 1;
	power_pf_B 1;
	power_pf_C 1;
	impedance_pf_A 1;
	impedance_pf_B 1;
	impedance_pf_C 1;
	power_fraction_A 1.0;
	power_fraction_B 1.0;
	power_fraction_C 1.0;
	current_fraction_A 0;
	current_fraction_B 0;
	current_fraction_C 0;
	impedance_fraction_A 0.0;
	impedance_fraction_B 0.0;
	impedance_fraction_C 0.0;
}

object load {
	name load_18_q;
	parent node_18;
	phases CN;
	nominal_voltage 2401.7771198288433;
	base_power_A 0.0;
	base_power_B 0.0;
	base_power_C 20000.0;
	power_pf_A 0;
	power_pf_B 0;
	power_pf_C 0;
	impedance_pf_A 0;
	impedance_pf_B 0;
	impedance_pf_C 0;
	power_fraction_A 1.0;
	power_fraction_B 1.0;
	power_fraction_C 1.0;
	current_fraction_A 0;
	current_fraction_B 0;
	current_fraction_C 0;
	impedance_fraction_A 0.0;
	impedance_fraction_B 0.0;
	impedance_fraction_C 0.0;
}

object load {
	name load_19_p;
	parent node_19;
	phases CN;
	nominal_voltage 2401.7771198288433;
	base_power_A 0.0;
	base_power_B 0.0;
	base_power_C 20000.0;
	power_pf_A 1;
	power_pf_B 1;
	power_pf_C 1;
	impedance_pf_A 1;
	impedance_pf_B 1;
	impedance_pf_C 1;
	power_fraction_A 1.0;
	power_fraction_B 1.0;
	power_fraction_C 1.0;
	current_fraction_A 0;
	current_fraction_B 0;
	current_fraction_C 0;
	impedance_fraction_A 0.0;
	impedance_fraction_B 0.0;
	impedance_fraction_C 0.0;
}

object load {
	name load_19_q;
	parent node_19;
	phases CN;
	nominal_voltage 2401.7771198288433;
	base_power_A 0.0;
	base_power_B 0.0;
	base_power_C 10000.0;
	power_pf_A 0;
	power_pf_B 0;
	power_pf_C 0;
	impedance_pf_A 0;
	impedance_pf_B 0;
	impedance_pf_C 0;
	power_fraction_A 1.0;
	power_fraction_B 1.0;
	power_fraction_C 1.0;
	current_fraction_A 0;
	current_fraction_B 0;
	current_fraction_C 0;
	impedance_fraction_A 0.0;
	impedance_fraction_B 0.0;
	impedance_fraction_C 0.0;
}

object load {
	name load_21_p;
	parent node_21;
	phases AN;
	nominal_voltage 2401.7771198288433;
	base_power_A 40000.0;
	base_power_B 0.0;
	base_power_C 0.0;
	power_pf_A 1;
	power_pf_B 1;
	power_pf_C 1;
	impedance_pf_A 1;
	impedance_pf_B 1;
	impedance_pf_C 1;
	power_fraction_A 1.0;
	power_fraction_B 1.0;
	power_fraction_C 1.0;
	current_fraction_A 0;
	current_fraction_B 0;
	current_fraction_C 0;
	impedance_fraction_A 0.0;
	impedance_fraction_B 0.0;
	impedance_fraction_C 0.0;
}

object load {
	name load_21_q;
	parent node_21;
	phases AN;
	nominal_voltage 2401.7771198288433;
	base_power_A 20000.0;
	base_power_B 0.0;
	base_power_C 0.0;
	power_pf_A 0;
	power_pf_B 0;
	power_pf_C 0;
	impedance_pf_A 0;
	impedance_pf_B 0;
	impedance_pf_C 0;
	power_fraction_A 1.0;
	power_fraction_B 1.0;
	power_fraction_C 1.0;
	current_fraction_A 0;
	current_fraction_B 0;
	current_fraction_C 0;
	impedance_fraction_A 0.0;
	impedance_fraction_B 0.0;
	impedance_fraction_C 0.0;
}

object load {
	name load_22_p;
	parent node_22;
	phases AN;
	nominal_voltage 2401.7771198288433;
	base_power_A 40000.0;
	base_power_B 0.0;
	base_power_C 0.0;
	power_pf_A 1;
	power_pf_B 1;
	power_pf_C 1;
	impedance_pf_A 1;
	impedance_pf_B 1;
	impedance_pf_C 1;
	power_fraction_A 1.0;
	power_fraction_B 1.0;
	power_fraction_C 1.0;
	current_fraction_A 0;
	current_fraction_B 0;
	current_fraction_C 0;
	impedance_fraction_A 0.0;
	impedance_fraction_B 0.0;
	impedance_fraction_C 0.0;
}

object load {
	name load_22_q;
	parent node_22;
	phases AN;
	nominal_voltage 2401.7771198288433;
	base_power_A 20000.0;
	base_power_B 0.0;
	base_power_C 0.0;
	power_pf_A 0;
	power_pf_B 0;
	power_pf_C 0;
	impedance_pf_A 0;
	impedance_pf_B 0;
	impedance_pf_C 0;
	power_fraction_A 1.0;
	power_fraction_B 1.0;
	power_fraction_C 1.0;
	current_fraction_A 0;
	current_fraction_B 0;
	current_fraction_C 0;
	impedance_fraction_A 0.0;
	impedance_fraction_B 0.0;
	impedance_fraction_C 0.0;
}

object load {
	name load_24_p;
	parent node_24;
	phases BN;
	nominal_voltage 2401.7771198288433;
	base_power_A 0.0;
	base_power_B 40000.0;
	base_power_C 0.0;
	power_pf_A 1;
	power_pf_B 1;
	power_pf_C 1;
	impedance_pf_A 1;
	impedance_pf_B 1;
	impedance_pf_C 1;
	power_fraction_A 1.0;
	power_fraction_B 1.0;
	power_fraction_C 1.0;
	current_fraction_A 0;
	current_fraction_B 0;
	current_fraction_C 0;
	impedance_fraction_A 0.0;
	impedance_fraction_B 0.0;
	impedance_fraction_C 0.0;
}

object load {
	name load_24_q;
	parent node_24;
	phases BN;
	nominal_voltage 2401.7771198288433;
	base_power_A 0.0;
	base_power_B 20000.0;
	base_power_C 0.0;
	power_pf_A 0;
	power_pf_B 0;
	power_pf_C 0;
	impedance_pf_A 0;
	impedance_pf_B 0;
	impedance_pf_C 0;
	power_fraction_A 1.0;
	power_fraction_B 1.0;
	power_fraction_C 1.0;
	current_fraction_A 0;
	current_fraction_B 0;
	current_fraction_C 0;
	impedance_fraction_A 0.0;
	impedance_fraction_B 0.0;
	impedance_fraction_C 0.0;
}

object load {
	name load_26_p;
	parent node_26;
	phases CN;
	nominal_voltage 2401.7771198288433;
	base_power_A 0.0;
	base_power_B 0.0;
	base_power_C 40000.0;
	power_pf_A 1;
	power_pf_B 1;
	power_pf_C 1;
	impedance_pf_A 1;
	impedance_pf_B 1;
	impedance_pf_C 1;
	power_fraction_A 1.0;
	power_fraction_B 1.0;
	power_fraction_C 1.0;
	current_fraction_A 0;
	current_fraction_B 0;
	current_fraction_C 0;
	impedance_fraction_A 0.0;
	impedance_fraction_B 0.0;
	impedance_fraction_C 0.0;
}

object load {
	name load_26_q;
	parent node_26;
	phases CN;
	nominal_voltage 2401.7771198288433;
	base_power_A 0.0;
	base_power_B 0.0;
	base_power_C 20000.0;
	power_pf_A 0;
	power_pf_B 0;
	power_pf_C 0;
	impedance_pf_A 0;
	impedance_pf_B 0;
	impedance_pf_C 0;
	power_fraction_A 1.0;
	power_fraction_B 1.0;
	power_fraction_C 1.0;
	current_fraction_A 0;
	current_fraction_B 0;
	current_fraction_C 0;
	impedance_fraction_A 0.0;
	impedance_fraction_B 0.0;
	impedance_fraction_C 0.0;
}

object load {
	name load_30_p;
	parent node_30;
	phases ABCN;
	nominal_voltage 2401.7771198288433;
	base_power_A 40000.0;
	base_power_B 0.0;
	base_power_C 0.0;
	power_pf_A 1;
	power_pf_B 1;
	power_pf_C 1;
	impedance_pf_A 1;
	impedance_pf_B 1;
	impedance_pf_C 1;
	power_fraction_A 1.0;
	power_fraction_B 1.0;
	power_fraction_C 1.0;
	current_fraction_A 0;
	current_fraction_B 0;
...